Version 4
SHEET 1 1632 680
WIRE 208 -96 -624 -96
WIRE 576 -96 208 -96
WIRE 784 -96 576 -96
WIRE 880 -96 784 -96
WIRE 976 -96 880 -96
WIRE 1072 -96 976 -96
WIRE 576 -64 576 -96
WIRE -624 0 -624 -96
WIRE 208 0 208 -96
WIRE 784 16 784 -96
WIRE 880 16 880 -96
WIRE 976 16 976 -96
WIRE 1072 16 1072 -96
WIRE 416 48 352 48
WIRE 576 48 576 16
WIRE 576 48 496 48
WIRE 576 80 576 48
WIRE 352 128 352 48
WIRE -624 176 -624 80
WIRE -48 176 -624 176
WIRE 208 176 208 64
WIRE 208 176 -48 176
WIRE 272 176 208 176
WIRE 576 176 576 144
WIRE 576 176 368 176
WIRE 784 176 784 80
WIRE 784 176 576 176
WIRE 880 176 880 80
WIRE 880 176 784 176
WIRE 976 176 976 80
WIRE 976 176 880 176
WIRE 1072 176 1072 80
WIRE 1072 176 976 176
WIRE -48 208 -48 176
FLAG -48 208 0
FLAG 1072 -96 Vin
DATAFLAG 672 176 ""
DATAFLAG 672 -96 ""
DATAFLAG 352 48 ""
DATAFLAG 112 176 ""
SYMBOL zener 592 144 R180
WINDOW 0 24 64 Left 2
WINDOW 3 24 0 Left 2
SYMATTR InstName D2
SYMATTR Value BZX84C10L
SYMATTR Description Diode
SYMATTR Type diode
SYMBOL res 512 32 R90
WINDOW 0 0 56 VBottom 2
WINDOW 3 32 56 VTop 2
SYMATTR InstName R1
SYMATTR Value 100
SYMBOL res 592 32 R180
WINDOW 0 36 76 Left 2
WINDOW 3 36 40 Left 2
SYMATTR InstName R2
SYMATTR Value 10k
SYMBOL TVS\\SMAJ26 224 64 R180
WINDOW 3 24 0 Left 2
WINDOW 0 24 64 Left 2
SYMATTR InstName U1
SYMBOL cap 768 16 R0
SYMATTR InstName C1
SYMATTR Value 220µ
SYMBOL cap 864 16 R0
SYMATTR InstName C2
SYMATTR Value 220µ
SYMBOL cap 960 16 R0
SYMATTR InstName C3
SYMATTR Value 2.2µ
SYMBOL cap 1056 16 R0
SYMATTR InstName C4
SYMATTR Value 2.2µ
SYMBOL Contrib\\Nexperia\\nmos\\PSMN011-30YLC 272 128 M90
WINDOW 0 71 61 VLeft 2
WINDOW 38 100 143 VLeft 2
SYMATTR InstName U2
SYMBOL voltage -624 -16 R0
SYMATTR InstName V1
SYMATTR Value 26
TEXT 64 -264 Left 2 ;.op
TEXT 376 192 Left 2 ;S
TEXT 312 120 Left 2 ;G
TEXT 256 192 Left 2 ;D
TEXT 544 -280 Left 2 !.lib SMAJ_TVS.lib
TEXT 64 -232 Left 2 !.tran 5m
