Version 4
SHEET 1 1632 680
WIRE 80 -96 16 -96
WIRE 224 -96 160 -96
WIRE 336 -96 224 -96
WIRE 576 -96 336 -96
WIRE 784 -96 576 -96
WIRE 880 -96 784 -96
WIRE 576 -64 576 -96
WIRE 16 0 16 -96
WIRE 224 0 224 -96
WIRE 784 16 784 -96
WIRE 880 16 880 -96
WIRE 416 48 352 48
WIRE 576 48 576 16
WIRE 576 48 496 48
WIRE 592 48 576 48
WIRE 576 80 576 48
WIRE 352 128 352 48
WIRE 16 176 16 80
WIRE 224 176 224 64
WIRE 224 176 16 176
WIRE 272 176 224 176
WIRE 576 176 576 144
WIRE 576 176 368 176
WIRE 784 176 784 80
WIRE 784 176 576 176
WIRE 880 176 880 80
WIRE 880 176 784 176
WIRE 16 208 16 176
FLAG 336 -96 Vin
FLAG 16 208 0
FLAG 16 -96 Vpulse
DATAFLAG 592 48 ""
DATAFLAG 672 176 ""
DATAFLAG 672 -96 ""
DATAFLAG 352 48 ""
DATAFLAG 128 176 ""
SYMBOL voltage 16 -16 M0
WINDOW 123 0 0 Left 0
WINDOW 39 24 124 Left 2
SYMATTR InstName V1
SYMATTR Value PULSE(25.2 100 1m 1n 1n 500u)
SYMBOL zener 592 144 R180
WINDOW 0 24 64 Left 2
WINDOW 3 24 0 Left 2
SYMATTR InstName D2
SYMATTR Value BZX84C10L
SYMATTR Description Diode
SYMATTR Type diode
SYMBOL res 512 32 R90
WINDOW 0 0 56 VBottom 2
WINDOW 3 32 56 VTop 2
SYMATTR InstName R1
SYMATTR Value 100
SYMBOL res 592 32 R180
WINDOW 0 36 76 Left 2
WINDOW 3 36 40 Left 2
SYMATTR InstName R2
SYMATTR Value 10k
SYMBOL TVS\\SMAJ26 240 64 R180
WINDOW 3 24 0 Left 2
WINDOW 0 24 64 Left 2
SYMATTR InstName U1
SYMBOL cap 768 16 R0
SYMATTR InstName C1
SYMATTR Value 220µ
SYMBOL cap 864 16 R0
SYMATTR InstName C2
SYMATTR Value 2.2µ
SYMBOL Contrib\\Nexperia\\nmos\\PSMN011-30YLC 272 128 M90
WINDOW 0 71 61 VLeft 2
WINDOW 38 100 143 VLeft 2
SYMATTR InstName U2
SYMBOL res 176 -112 R90
WINDOW 0 0 56 VBottom 2
WINDOW 3 32 56 VTop 2
SYMATTR InstName Rs
SYMATTR Value 10
TEXT 376 192 Left 2 ;S
TEXT 312 120 Left 2 ;G
TEXT 256 192 Left 2 ;D
TEXT 544 -280 Left 2 !.lib SMAJ_TVS.lib
TEXT 64 -232 Left 2 !.tran 5m
